New "LineCode.main" nphases=3 baseFreq=50 rmatrix=[  0.08000000   0.03200000   0.03200000 |  0.03200000   0.08000000   0.03200000 |  0.03200000   0.03200000   0.08000000 ] xmatrix=[  0.04700000   0.01900000   0.01900000 |  0.01900000   0.04700000   0.01900000 |  0.01900000   0.01900000   0.04700000 ] cmatrix=[ 50.93000000   0.00000000   0.00000000 |  0.00000000  50.93000000   0.00000000 |  0.00000000   0.00000000  50.93000000 ]
